26
Generated from adamantane.gjf
 C    -2.5235403400     0.1035781500     0.0000000000
 H    -1.4037543400     0.1035781500     0.0000000000
 H    -2.8698313400     1.1684621500     0.0000000000
 C    -3.0402023400    -0.6080178500     1.2467890000
 H    -2.6594403400    -0.0836498500     2.1630050000
 C    -3.0404973400    -0.6081938500    -1.2465520000
 H    -2.6599313400    -0.0839788500    -2.1629410000
 C    -2.5507623400    -2.0531568500    -1.2451250000
 H    -1.4312423400    -2.0743248500    -1.2576560000
 H    -2.9172563400    -2.5788838500    -2.1633800000
 C    -2.5504133400    -2.0529678500     1.2453830000
 H    -2.9166153400    -2.5785878500     2.1638180000
 H    -1.4308903400    -2.0740878500     1.2575710000
 C    -3.0673523400    -2.7672588500     0.0002560000
 H    -2.7065353400    -3.8298978500     0.0002850000
 C    -4.5929033400    -2.7465188500     0.0004440000
 H    -4.9797053400    -3.2791608500    -0.9054200000
 H    -4.9794423400    -3.2790168500     0.9065050000
 C    -4.5657843400    -0.5898028500     1.2455700000
 H    -4.9325703400     0.4681281500     1.2579880000
 H    -4.9520183400    -1.1009478500     2.1639830000
 C    -4.5660833400    -0.5898778500    -1.2449070000
 H    -4.9327823400     0.4680901500    -1.2571940000
 H    -4.9526303400    -1.1009448500    -2.1632230000
 C    -5.0850043400    -1.3023598500     0.0004100000
 H    -6.2071413400    -1.2883198500     0.0005590000
