60
Generated from c60.gjf
 C    -3.0320148900     0.1600753300     0.0000000000
 C    -1.5681258900     0.1600753300     0.0000000000
 C    -0.8758368900     1.3592733300     0.0000000000
 C    -1.6078188900     2.6270313300    -0.0000190000
 C    -2.9924868900     2.6269993300     0.0000050000
 C    -3.7243928900     1.3592043300     0.0000210000
 C    -3.4843948900    -0.9463096700    -0.8451430000
 C    -2.3001088900    -1.6300616700    -1.3675130000
 C    -1.1157488900    -0.9462696700    -0.8451870000
 C     0.0044221100    -0.7935686700    -1.6446770000
 C     0.3084181100     1.5206963300    -0.8452500000
 C    -0.8759328900     3.5719553300    -0.8452650000
 C    -1.5683358900     4.4657333300    -1.6447020000
 C    -3.0322288900     4.4657103300    -1.6446480000
 C    -3.7244948900     3.5719063300    -0.8451540000
 C    -4.9088168900     2.8880993300    -1.3674540000
 C    -4.9087548900     1.5205823300    -0.8451020000
 C    -5.3366608900     0.4740823300    -1.6445070000
 C    -4.6046638900    -0.7936766700    -1.6445290000
 C    -2.3001608900    -2.1241666700    -2.6610190000
 C    -3.4844868900    -1.9627986700    -3.5061440000
 C    -4.6047008900    -1.3160406700    -3.0120360000
 C    -5.3367148900    -0.3711326700    -3.8572030000
 C    -5.7890848900     0.7352193300    -3.0120100000
 C    -5.7891368900     2.0287373300    -3.5061080000
 C    -5.3367708900     3.1351123300    -2.6609570000
 C    -4.6048858900     4.0800753300    -3.5061910000
 C    -3.4846588900     4.7268783300    -3.0121730000
 C     0.3083571100     2.8882303300    -1.3676370000
 C    -1.1160788900     3.7104153300    -5.6732580000
 C     0.0041911100     3.5577933300    -4.8738860000
 C     0.7361641100     2.2900423300    -4.8738800000
 C     0.3082621100     1.2435473300    -5.6733060000
 C    -0.8760678900     1.4049263300    -6.5184370000
 C    -3.0323508900     2.6040313300    -6.5183720000
 C    -3.4847198900     3.7103903300    -5.6731870000
 C    -2.3004108900     4.3941913300    -5.1508860000
 C    -2.3003738900     4.8882893300    -3.8573780000
 C    -1.1160148900     4.7268943300    -3.0122130000
 C     0.0042111100     4.0801573300    -3.5063270000
 C     1.1885591100     2.0288923300    -3.5063730000
 C     1.1886161100     0.7354023300    -3.0122630000
 C     0.7362231100    -0.3709986700    -3.8574020000
 C     0.3082951100    -0.1239776700    -5.1509220000
 C    -0.8759888900    -0.8077736700    -5.6732300000
 C    -1.6079908900     0.1371263300    -6.5183830000
 C    -2.9926608900     0.1371103300    -6.5183270000
 C    -3.7246478900     1.4048603300    -6.5183320000
 C    -4.6049208900     3.5576973300    -4.8737040000
 C    -5.3368198900     2.2899043300    -4.8736580000
 C    -4.9089348900     1.2434283300    -5.6731030000
 C    -4.9088798900    -0.1240996700    -5.1507390000
 C    -3.7245528900    -0.8078426700    -5.6731260000
 C    -3.0321648900    -1.7016216700    -4.8737150000
 C    -1.5682718900    -1.7015956700    -4.8737470000
 C    -1.1158568900    -1.9627276700    -3.5062650000
 C     0.0043641100    -1.3159286700    -3.0122240000
 C     0.7361861100     3.1352743300    -2.6611840000
 C     0.7363011100     0.4742323300    -1.6446990000
 C    -1.5684428900     2.6040693300    -6.5184040000
