74

  C     -5.5262     -3.8991     -0.3220
  C     -5.7738     -2.4128     -0.5919
  C     -4.4576     -1.7171     -0.9371
  C     -4.4944     -4.1110      0.7955
  C     -3.2184     -3.3570      0.5284
  C     -2.0351     -3.9635      0.6939
  C     -0.7104     -3.2953      0.5068
  C     -0.8216     -1.7590      0.4634
  C      0.4637     -1.1351     -0.0935
  C      1.7902     -1.4160      0.6295
  C      2.7144     -0.2533      0.1987
  C      1.8429      0.7843     -0.5690
  C      2.2903      2.2453     -0.3314
  C      3.7897      2.4197     -0.6692
  C      4.3208      3.8003     -0.2584
  C      5.8485      3.8739     -0.3744
  C      6.3918      5.2858     -0.0670
  C      6.2252      5.6428      1.4160
  C      7.8695      5.3794     -0.4734
  C      1.4470      3.2131     -1.1731
  C      0.3829      0.4270     -0.1287
  C      0.0588      1.0387      1.2429
  C     -0.7212      0.7821     -1.1427
  C     -2.0651      0.1671     -0.7197
  C     -2.0113     -1.3528     -0.4495
  C     -3.3594     -1.8839      0.1498
  C     -3.7453     -1.1141      1.4269
  O     -6.8149     -4.3943      0.1061
  H     -5.2380     -4.4471     -1.2448
  H     -6.5079     -2.2977     -1.4120
  H     -6.2524     -1.9503      0.2947
  H     -4.0773     -2.1114     -1.9001
  H     -4.6495     -0.6399     -1.1038
  H     -4.9251     -3.7633      1.7604
  H     -4.3013     -5.1913      0.9350
  H     -1.9697     -5.0137      0.9756
  H     -0.0191     -3.5917      1.3212
  H     -0.2482     -3.6754     -0.4290
  H     -1.0080     -1.3844      1.4976
  H      0.5790     -1.4956     -1.1485
  H      1.6564     -1.4316      1.7236
  H      2.2077     -2.3950      0.3517
  H      3.1916      0.2039      1.0812
  H      3.5304     -0.6173     -0.4451
  H      1.9330      0.5773     -1.6612
  H      2.1493      2.4959      0.7482
  H      4.3833      1.6375     -0.1590
  H      3.9513      2.2597     -1.7510
  H      3.8583      4.5836     -0.8897
  H      4.0128      4.0299      0.7804
  H      6.3157      3.1366      0.3050
  H      6.1572      3.5760     -1.3951
  H      5.8153      6.0273     -0.6749
  H      5.1704      5.6415      1.7111
  H      6.7464      4.9297      2.0638
  H      6.6281      6.6375      1.6333
  H      8.0100      5.1537     -1.5355
  H      8.2642      6.3856     -0.2971
  H      8.4900      4.6806      0.0979
  H      0.3733      3.0962     -0.9686
  H      1.7099      4.2551     -0.9626
  H      1.5950      3.0479     -2.2455
  H     -0.8757      0.6362      1.6513
  H      0.8478      0.8275      1.9722
  H     -0.0532      2.1254      1.1782
  H     -0.8223      1.8835     -1.2267
  H     -0.4412      0.4292     -2.1518
  H     -2.4322      0.6928      0.1859
  H     -2.8149      0.3691     -1.5084
  H     -1.8602     -1.8635     -1.4334
  H     -4.7091     -1.4533      1.8218
  H     -2.9954     -1.2573      2.2136
  H     -3.8274     -0.0377      1.2392
  H     -6.7778     -5.3461      0.2989
