16
Generated from cubane.gjf
 C     0.0000000000     0.0000000000     0.0000000000
 C     1.5000000000     0.0000000000     0.0000000000
 C     0.0000000000     1.5000000000     0.0000000000
 C     0.0000000000     0.0000000000     1.5000000000
 C     1.5000000000     1.5000000000     0.0000000000
 C     1.5000000000     0.0000000000     1.5000000000
 C     0.0000000000     1.5000000000     1.5000000000
 C     1.5000000000     1.5000000000     1.5000000000
 H    -0.6177647900    -0.6177647900    -0.6177647900
 H    -0.6177647900     2.1177647900    -0.6177647900
 H     2.1177647900     2.1177647900    -0.6177647900
 H     2.1177647900    -0.6177647900    -0.6177647900
 H    -0.6177647900    -0.6177647900     2.1177647900
 H    -0.6177647900     2.1177647900     2.1177647900
 H     2.1177647900     2.1177647900     2.1177647900
 H     2.1177647900    -0.6177647900     2.1177647900
